Version 4
SHEET 1 880 680
WIRE -16 -352 -432 -352
WIRE -16 -336 -16 -352
WIRE -432 -320 -432 -352
WIRE -432 -208 -432 -240
WIRE -224 -208 -432 -208
WIRE -16 -208 -16 -256
WIRE -16 -208 -224 -208
WIRE -224 -160 -224 -208
FLAG -224 -160 0
SYMBOL voltage -432 -336 R0
WINDOW 123 0 0 Left 2
WINDOW 39 0 0 Left 2
SYMATTR InstName V1
SYMATTR Value SINE(0 1.2 1 0 0 0)
SYMBOL memristor -32 -352 R0
WINDOW 3 36 76 Invisible 2
WINDOW 39 36 68 Left 2
SYMATTR InstName U1
TEXT -352 -384 Left 2 !.tran 0 3s 0 3m skipbp
